Circuit: * C:\Users\akram\OneDrive\Projects\LTSpice Projects\LTSpicePractice\1_RC_and_CR_Circuit\1_RC_and_CR_Circuit.asc

.OP point found by inspection.

Date: Sun Jun 14 15:08:23 2020
Total elapsed time: 0.069 seconds.

tnom = 27
temp = 27
method = modified trap
totiter = 2154
traniter = 2154
tranpoints = 1078
accept = 1072
rejected = 6
matrix size = 6
fillins = 0
solver = Normal
Matrix Compiler1: 128 bytes object code size  0.0/0.0/[0.0]
Matrix Compiler2: 340 bytes object code size  0.0/0.1/[0.0]

