Circuit: * C:\Users\akram\OneDrive\Projects\LTSpice Projects\LTSpicePractice\1_RC_and_CR_Circuit\2_AC_Sweep.asc


Date: Fri Jun 19 10:33:15 2020
Total elapsed time: 0.132 seconds.

tnom = 27
temp = 27
method = trap
totiter = 0
traniter = 0
tranpoints = 0
accept = 0
rejected = 0
matrix size = 4
fillins = 0
solver = Normal

