Circuit: * C:\Users\akram\OneDrive\Projects\LTSpice Projects\LTSpicePractice\1_RC_and_CR_Circuit\Draft2.asc

Direct Newton iteration for .op point succeeded.

Date: Fri Jun 19 09:36:36 2020
Total elapsed time: 0.267 seconds.

tnom = 27
temp = 27
method = modified trap
totiter = 74367
traniter = 74364
tranpoints = 37183
accept = 24428
rejected = 12755
matrix size = 3
fillins = 0
solver = Normal
Matrix Compiler1: 50 bytes object code size  0.0/0.0/[0.0]
Matrix Compiler2: off  [0.0]/0.1/0.1

