Circuit: * C:\Users\akram\OneDrive\Projects\LTSpice Projects\LTSpicePractice\0_FirstOrderReactiveCircuit\0_FirstOrderReactiveCircuit.asc

WARNING: Specified period is not longer than the sum of Trise, Tfall, and Ton for v2.  Increasing period to 10.002
WARNING: Specified period is not longer than the sum of Trise, Tfall, and Ton for v1.  Increasing period to 10.002
.OP point found by inspection.

Date: Fri Jun 12 20:57:46 2020
Total elapsed time: 0.277 seconds.

tnom = 27
temp = 27
method = modified trap
totiter = 2166
traniter = 2166
tranpoints = 1084
accept = 1076
rejected = 8
matrix size = 5
fillins = 0
solver = Normal
Matrix Compiler1: 96 bytes object code size  0.1/0.1/[0.1]
Matrix Compiler2: 267 bytes object code size  0.1/0.1/[0.1]

